ucte/ucte-converter/src/test/resources/postProcessorsTestGrid.uct
##C 2007.05.01
Small test grid for UCTE export post-processors
##N
##ZBE
BA____11 Belgium A1   0 2 400.00 10.0000 0.00000 -100.00 0.00000 0.00000 -200.00 100.000 -100.00                               H
##ZFR
FA____11 France A1    0 2 400.00 10.0000 0.00000 -100.00 0.00000 0.00000 -200.00 100.000 -100.00                               F
FA____12 France A2    0 0        10.0000 0.00000 0.00000 0.00000
FA____21 France A3    0 0        10.0000 0.00000 0.00000 0.00000
FB____11 France B1    0 0        10.0000 0.00000 0.00000 0.00000
##L
BA____11 FA____11 1 0 0.5500 1.6800 13.25000   5000 Line BE-FR
FA____11 FB____11 1 0 0.5500 1.6800 13.25000   5000 Line A1-B1
FA____12 FB____11 1 0 0.5500 1.6800 13.25000   5000 Line A2-B1
##T
FA____11 FA____21 1 0 400.0 225.0 5000. 0.5500 1.6800 13.25000 0.0000   5000 Transfo A
##R
FA____11 FA____21 1 2.000  7  -3
